
     RDKit          3D

 18 19  0  0  0  0  0  0  0  0999 V2000
   17.0923   12.9156 1133.2687 C   0  0  0  0  0  0  0  0  0  0  0  0
   17.8482   12.9535 1134.4367 C   0  0  0  0  0  0  0  0  0  0  0  0
   18.5947   11.8383 1134.8211 C   0  0  0  0  0  0  0  0  0  0  0  0
   18.5942   10.6704 1134.0411 C   0  0  0  0  0  0  0  0  0  0  0  0
   19.3395    9.5398 1134.4135 C   0  0  0  0  0  0  0  0  0  0  0  0
   19.3280    8.3868 1133.6269 C   0  0  0  0  0  0  0  0  0  0  0  0
   18.5720    8.3489 1132.4589 C   0  0  0  0  0  0  0  0  0  0  0  0
   17.8256    9.4641 1132.0744 C   0  0  0  0  0  0  0  0  0  0  0  0
   17.8261   10.6320 1132.8544 C   0  0  0  0  0  0  0  0  0  0  0  0
   17.0808   11.7626 1132.4820 C   0  0  0  0  0  0  0  0  0  0  0  0
   16.5107   13.7832 1132.9683 H   0  0  0  0  0  0  0  0  0  0  0  0
   17.8580   13.8507 1135.0499 H   0  0  0  0  0  0  0  0  0  0  0  0
   19.1791   11.8868 1135.7370 H   0  0  0  0  0  0  0  0  0  0  0  0
   19.9362    9.5504 1135.3227 H   0  0  0  0  0  0  0  0  0  0  0  0
   19.9095    7.5192 1133.9272 H   0  0  0  0  0  0  0  0  0  0  0  0
   18.5623    7.4518 1131.8456 H   0  0  0  0  0  0  0  0  0  0  0  0
   17.2412    9.4156 1131.1585 H   0  0  0  0  0  0  0  0  0  0  0  0
   16.4841   11.7520 1131.5728 H   0  0  0  0  0  0  0  0  0  0  0  0
  1  2  2  0
  2  3  1  0
  3  4  2  0
  4  5  1  0
  5  6  2  0
  6  7  1  0
  7  8  2  0
  8  9  1  0
  9 10  2  0
 10  1  1  0
  9  4  1  0
  1 11  1  0
  2 12  1  0
  3 13  1  0
  5 14  1  0
  6 15  1  0
  7 16  1  0
  8 17  1  0
 10 18  1  0
M  END
