
     RDKit          3D

 18 19  0  0  0  0  0  0  0  0999 V2000
   18.8402    9.2543 1131.4325 C   0  0  0  0  0  0  0  0  0  0  0  0
   19.7923   10.2666 1131.5092 C   0  0  0  0  0  0  0  0  0  0  0  0
   19.7202   11.2165 1132.5295 C   0  0  0  0  0  0  0  0  0  0  0  0
   18.6938   11.1655 1133.4867 C   0  0  0  0  0  0  0  0  0  0  0  0
   18.6068   12.1132 1134.5195 C   0  0  0  0  0  0  0  0  0  0  0  0
   17.5801   12.0481 1135.4630 C   0  0  0  0  0  0  0  0  0  0  0  0
   16.6280   11.0358 1135.3864 C   0  0  0  0  0  0  0  0  0  0  0  0
   16.7000   10.0859 1134.3661 C   0  0  0  0  0  0  0  0  0  0  0  0
   17.7264   10.1369 1133.4088 C   0  0  0  0  0  0  0  0  0  0  0  0
   17.8135    9.1893 1132.3760 C   0  0  0  0  0  0  0  0  0  0  0  0
   18.8952    8.5142 1130.6386 H   0  0  0  0  0  0  0  0  0  0  0  0
   20.5921   10.3183 1130.7752 H   0  0  0  0  0  0  0  0  0  0  0  0
   20.4733   12.0000 1132.5729 H   0  0  0  0  0  0  0  0  0  0  0  0
   19.3415   12.9114 1134.5958 H   0  0  0  0  0  0  0  0  0  0  0  0
   17.5250   12.7882 1136.2569 H   0  0  0  0  0  0  0  0  0  0  0  0
   15.8282   10.9841 1136.1204 H   0  0  0  0  0  0  0  0  0  0  0  0
   15.9470    9.3024 1134.3226 H   0  0  0  0  0  0  0  0  0  0  0  0
   17.0788    8.3910 1132.2998 H   0  0  0  0  0  0  0  0  0  0  0  0
  1  2  2  0
  2  3  1  0
  3  4  2  0
  4  5  1  0
  5  6  2  0
  6  7  1  0
  7  8  2  0
  8  9  1  0
  9 10  2  0
 10  1  1  0
  9  4  1  0
  1 11  1  0
  2 12  1  0
  3 13  1  0
  5 14  1  0
  6 15  1  0
  7 16  1  0
  8 17  1  0
 10 18  1  0
M  END
